reduced_networks/ieee37/62pct/dss/Shunts.dss
! Kron-equivalent grounded shunts
new Reactor.sh_3 phases=3 bus1=709.1.2.3 bus2=709.0.0.0 rmatrix=[0.01788462063049625 | 0.0067545512262553 0.01798026039693923 | 0.006366015263807726 0.00671868637539319 0.0178846206387675] xmatrix=[-82036.84938854423 | 0.002970811216755586 -82036.84989065251 | 0.002086143888255362 0.002899081385146995 -82036.84938854421]
new Reactor.sh_5 phases=3 bus1=701.1.2.3 bus2=701.0.0.0 rmatrix=[-6.673101974132218e-13 | 1.414957187892997e-07 -3.395914939991199e-06 | 3.537442171787974e-08 -2.122446877523905e-07 -1.131968992486178e-06] xmatrix=[-25243.67945502326 | -5.659925794064372e-07 -25243.67945389128 | 2.829910651700252e-07 5.659874829672863e-07 -25243.67945502326]
new Reactor.sh_6 phases=3 bus1=702.1.2.3 bus2=702.0.0.0 rmatrix=[0.006855314416020507 | 0.001778024622646524 0.006887191405034798 | 0.001683888112275738 0.001774040000830368 0.006850001591615751] xmatrix=[-22326.56996521706 | 0.0009107078944010069 -22326.57008564107 | 0.000700187140945719 0.0009138070274765583 -22326.56996078971]
new Reactor.sh_7 phases=3 bus1=703.1.2.3 bus2=703.0.0.0 rmatrix=[0.01460174613589378 | 0.004098021831399262 0.01468289526573585 | 0.003869790637802668 0.004093372680983975 0.01461188977228289] xmatrix=[-30850.04803374364 | 0.002032955670791267 -30850.04833128988 | 0.001548174727945485 0.00202450265125087 -30850.04803881545]
new Reactor.sh_8 phases=3 bus1=730.1.2.3 bus2=730.0.0.0 rmatrix=[0 | -2.763090954163242e-05 2.164277199399456e-15 | 0 0 0] xmatrix=[-176379.2461130471 | -0 -176379.2462235707 | -0 -0 -176379.2461130471]
new Reactor.sh_9 phases=3 bus1=704.1.2.3 bus2=704.0.0.0 rmatrix=[0.01124958929638683 | 0.003095278073626057 0.01118897189553536 | 0.002792190965259163 0.002990460441196774 0.01107783988165068] xmatrix=[-53326.50547451148 | 0.001579212468882276 -53326.50573466143 | 0.001079118300879812 0.001466817554330646 -53326.50554270618]
new Reactor.sh_10 phases=3 bus1=720.1.2.3 bus2=720.0.0.0 rmatrix=[0.0165096621363847 | 0.006137081533616438 0.01660168164158904 | 0.005772476865076551 0.006145328571989239 0.01649403618728229] xmatrix=[-44213.16216478097 | 0.002684843959050496 -44213.16267696414 | 0.00192763711194989 0.002673775584640214 -44213.16214915502]
new Reactor.sh_11 phases=3 bus1=707.1.2.3 bus2=707.0.0.0 rmatrix=[0.02439639651032548 | 0.005986071094585723 0.02452936775989656 | 0.005703270451829353 0.006034035646507618 0.02443438824775512] xmatrix=[-65402.52248545436 | 0.003177420529162146 -65402.52291001196 | 0.002505322655268189 0.003218736609198913 -65402.52250112594]
new Reactor.sh_12 phases=3 bus1=708.1.2.3 bus2=708.0.0.0 rmatrix=[0.01127641459652459 | 0.003816909532673578 0.01122832753435432 | 0.003612539650504354 0.003931116288640624 0.01122832753128478] xmatrix=[-82265.73790678952 | 0.001800260417334143 -82265.73806307241 | 0.001256275495787057 0.001785233217923121 -82265.73782263717]
new Reactor.sh_13 phases=3 bus1=734.1.2.3 bus2=734.0.0.0 rmatrix=[0.09681936728588733 | 0.02412329236611108 0.09732623111919643 | 0.02283451712774892 0.02411896359187171 0.09679575587944633] xmatrix=[-29768.04344601068 | 0.01267182963485245 -29768.0451121866 | 0.009811493523111333 0.01267537129983465 -29768.04344679788]
new Reactor.sh_14 phases=3 bus1=737.1.2.3 bus2=737.0.0.0 rmatrix=[0.06843920155620549 | 0.02573799870205108 0.06886318448958662 | 0.02422513015057197 0.02574738571932755 0.06840165343159299] xmatrix=[-41969.9276994723 | 0.01116048626742016 -41969.9297732206 | 0.008023650217046813 0.01116772209968164 -41969.92769790789]
new Reactor.sh_15 phases=3 bus1=799r.1.2.3 bus2=799r.0.0.0 rmatrix=[-1.133434510778593e-06 | -7.438140928890093e-07 0.0001450793171971959 | 3.63889344203734e-13 2.479372310448808e-07 3.40029507040001e-06] xmatrix=[-35722.97836033681 | -1.983506938421859e-06 -35722.97836487053 | 1.081578672488766e-12 -8.500712386468377e-07 -35722.97836260368]
